*Heading
 this is a test mesh for an Abaqus dynamic simulation of our Kaltoff-Winkler plate problem
** Job name: AbaqusPlateTest Model name: Model-1
** Generated by: Abaqus/CAE 6.12-3
*Preprint, echo=NO, model=NO, history=NO, contact=NO
**
** PARTS
**
*Part, name=Part-4
*Node
      1,          50.,          25.
      2,         100.,          25.
      3,         100.,         100.
      4,          50.,         100.
      5,           0.,          25.
      6,           0.,         100.
      7,           0.,           0.
      8,         100.,           0.
      9,   58.3333321,          25.
     10,   66.6666641,          25.
     11,          75.,          25.
     12,   83.3333359,          25.
     13,   91.6666641,          25.
     14,         100.,   33.3333321
     15,         100.,   41.6666679
     16,         100.,          50.
     17,         100.,   58.3333321
     18,         100.,   66.6666641
     19,         100.,          75.
     20,         100.,   83.3333359
** ... 149 like lines cut
*Element, type=CPE4
 1,   1,   9,  68,  34
 2,   9,  10,  69,  68
 3,  10,  11,  70,  69
 4,  11,  12,  71,  70
 5,  12,  13,  72,  71
 6,  13,   2,  14,  72
 7,  34,  68,  73,  33
 8,  68,  69,  74,  73
 9,  69,  70,  75,  74
10,  70,  71,  76,  75
11,  71,  72,  77,  76
12,  72,  14,  15,  77
13,  33,  73,  78,  32
14,  73,  74,  79,  78
15,  74,  75,  80,  79
16,  75,  76,  81,  80
17,  76,  77,  82,  81
18,  77,  15,  16,  82
19,  32,  78,  83,  31
20,  78,  79,  84,  83
** ... 124 like lines cut
*Nset, nset=Set-1
   1,   4,   5,   6,  27,  28,  29,  30,  31,  32,  33,  34,  35,  36,  37,  38
  39,  40,  41,  42,  43,  44,  45,  46,  47,  48,  49,  50,  51,  52, 108, 109
 110, 111, 112, 113, 114, 115, 116, 117, 118, 119, 120, 121, 122, 123, 124, 125
 126, 127, 128, 129, 130, 131, 132, 133, 134, 135, 136, 137, 138, 139, 140, 141
 142, 143, 144, 145, 146, 147
*Elset, elset=Set-1, generate
  55,  108,    1
*Nset, nset=Set-2
   1,   2,   3,   4,   9,  10,  11,  12,  13,  14,  15,  16,  17,  18,  19,  20
  21,  22,  23,  24,  25,  26,  27,  28,  29,  30,  31,  32,  33,  34,  68,  69
  70,  71,  72,  73,  74,  75,  76,  77,  78,  79,  80,  81,  82,  83,  84,  85
  86,  87,  88,  89,  90,  91,  92,  93,  94,  95,  96,  97,  98,  99, 100, 101
 102, 103, 104, 105, 106, 107
*Elset, elset=Set-2, generate
  1,  54,   1
*Nset, nset=Set-3
   1,   2,   5,   7,   8,   9,  10,  11,  12,  13,  35,  36,  37,  38,  39,  53
  54,  55,  56,  57,  58,  59,  60,  61,  62,  63,  64,  65,  66,  67, 148, 149
 150, 151, 152, 153, 154, 155, 156, 157, 158, 159, 160, 161, 162, 163, 164, 165
 166, 167, 168, 169
*Elset, elset=Set-3, generate
 109,  144,    1
** Section: Section-2
*Solid Section, elset=Set-2, material=Material-2
,
** Section: Section-1
*Solid Section, elset=Set-1, material=Material-1
,
** Section: Section-3
*Solid Section, elset=Set-3, material=Material-3
,
*End Part
**  
**
** ASSEMBLY
**
*Assembly, name=Assembly
**  
*Instance, name=Part-4-1, part=Part-4
*End Instance
**  
*Nset, nset=BC2, instance=Part-4-1
  2,  3, 14, 15, 16, 17, 18, 19, 20, 21
*Elset, elset=BC2, instance=Part-4-1, generate
  6,  54,   6
*Nset, nset=BC3, instance=Part-4-1
  7,  8, 53, 54, 55, 56, 57, 58, 59, 60, 61, 62, 63
*Elset, elset=BC3, instance=Part-4-1, generate
 109,  120,    1
*Nset, nset=Set-5, instance=Part-4-1
  2,  8, 64, 65
*Elset, elset=Set-5, instance=Part-4-1, generate
 120,  144,   12
*Nset, nset=BC1, instance=Part-4-1
  5,  6, 45, 46, 47, 48, 49, 50, 51, 52
*Elset, elset=BC1, instance=Part-4-1, generate
  55,  103,    6
*Nset, nset=Set-4, instance=Part-4-1
  5,  7, 66, 67
*Elset, elset=Set-4, instance=Part-4-1, generate
 109,  133,   12
*End Assembly
*Amplitude, name=Amp-1
             0.,              0.,              1.,          0.1
** 
** MATERIALS
** 
*Material, name=Material-1
*Density
 8e-06,
*Elastic
29000., 0.3
*Material, name=Material-2
*Density
 8e-06,
*Elastic
29000., 0.3
*Material, name=Material-3
*Density
 8e-06,
*Elastic
29000., 0.3
** 
** BOUNDARY CONDITIONS
** 
** Name: BC-2 Type: Symmetry/Antisymmetry/Encastre
*Boundary
BC2, XSYMM
** Name: BC-3 Type: Symmetry/Antisymmetry/Encastre
*Boundary
BC3, YSYMM
** Name: BC-5 Type: Symmetry/Antisymmetry/Encastre
*Boundary
Set-5, XSYMM
** ----------------------------------------------------------------
** 
** STEP: Step-1
** 
*Step, name=Step-1, inc=20
*Static, direct
0.1, 1., 
** 
** BOUNDARY CONDITIONS
** 
** BOUNDARY CONDITIONS
** 
** Name: BC-1 Type: Displacement/Rotation
*Boundary, amplitude=Amp-1
BC1, 1, 1, 1.
** Name: BC-4 Type: Displacement/Rotation
*Boundary, amplitude=Amp-1
Set-4, 1, 1, 1.
** 
** OUTPUT REQUESTS
** 
*Restart, write, frequency=0
** 
** FIELD OUTPUT: F-Output-1
** 
*Output, field, variable=PRESELECT
** 
** HISTORY OUTPUT: H-Output-1
** 
*Output, history, variable=PRESELECT
*End Step
